28
Lattice="6.867 0.0 0.0 -1.4768811794483787 7.044858123609813 0.0 -0.7158000483095371 -2.064773646852691 5.293663105837271" Properties=species:S:1:pos:R:3 pbc="T T T"
O        2.17307000       0.46141900       2.48179000
O        2.50125000       4.51867000       2.81188000
O        3.02075000      -0.57573700       4.25847000
O        1.65357000       5.55583000       1.03520000
C        2.41821000       0.36586000       3.76372000
C        2.25611000       4.61423000       1.52994000
C        1.89734000       1.53038000       4.54625000
C        2.77698000       3.44971000       0.74741600
H        2.56199000      -0.31188100       1.96966000
H        2.11233000       5.29197000       3.32400000
H        0.84795900       1.67530000       4.28019000
H        3.82636000       3.30479000       1.01347000
H        2.42601000       2.41267000       4.17731000
H        2.24831000       2.56742000       1.11636000
O        5.53843000       0.71261800       2.58007000
O       -0.86410700       4.26747000       2.71359000
O       -0.38716800       2.17880000       1.19420000
O        5.06149000       2.80129000       4.09946000
C        6.15549000       1.03306000       1.46800000
C       -1.48117000       3.94702000       3.82566000
C        6.39689000      -0.14296000       0.57369000
C       -1.72257000       5.12305000       4.71997000
H        5.36730000       1.52342000       3.14543000
H       -0.69297900       3.45667000       2.14823000
H        3.93654000       6.60658000       0.19722700
H        0.73778300      -1.62649000       5.09643000
H       -1.59315000       6.07260000       1.18847000
H        6.26747000      -1.09251000       4.10519000
