20
Lattice="5.311 0.0 0.0 0.0 6.454 0.0 -2.2120093713189983 0.0 5.2467752516376125" Properties=species:S:1:pos:R:3 spacegroup="P 21" unit_cell=conventional occupancy="_JSON {\"0\": {\"N\": 1}, \"1\": {\"H\": 1}, \"2\": {\"H\": 1}, \"3\": {\"H\": 1}, \"4\": {\"C\": 1}, \"5\": {\"H\": 1}, \"6\": {\"H\": 1}, \"7\": {\"C\": 1}, \"8\": {\"O\": 1}, \"9\": {\"O\": 1}}" pbc="T T T"
N        4.00156569       2.80490840       1.23771428
N       -0.90257506       6.03190840       4.00906097
H        4.41701070       3.02047200       0.16789681
H       -1.31802007       6.24747200       5.07887844
H        3.83831856       1.65867800       1.36416157
H       -0.73932793       4.88567800       3.88261369
H       -0.54491064       3.17536800       2.03574880
H        3.64390126       6.40236800       3.21102645
C        2.66650165       3.53808280       1.42764755
C        0.43248898       0.31108280       3.81912771
H        1.85764473       3.05919600       0.70831466
H        1.24134589       6.28619600       4.53846059
H        2.80041800       4.67269600       1.11756313
H        0.29857262       1.44569600       4.12921212
C        2.13889336       3.46386180       2.93609543
C        0.96009727       0.23686180       2.31067982
O        3.03524575       3.28831300       3.89258256
O        0.06374488       0.06131300       1.35419269
O        0.84720539       3.64263760       3.14281838
O        2.25178524       0.41563760       2.10395688
